Networks/MV_SemiUrban/SemiUrban_LinesLaterals3.txt
New Line.Feeder3.1      Bus1=Main_Busbar Bus2=3_1       Length=1    units=m Linecode=Line_MV_185
New Line.Feeder3.2      Bus1=3_1         Bus2=3_2       Length=1    units=m Linecode=Line_MV_185
New Line.Feeder3.3      Bus1=3_2         Bus2=3_3       Length=1    units=m Linecode=Line_MV_185
New Line.Feeder3.4      Bus1=3_3         Bus2=3_4       Length=1    units=m Linecode=Line_MV_185
New Line.Feeder3.5      Bus1=3_4         Bus2=3_5       Length=1    units=m Linecode=Line_MV_185
New Line.Feeder3.6      Bus1=3_5         Bus2=3_6       Length=1    units=m Linecode=Line_MV_185
New Line.Feeder3.7      Bus1=3_6         Bus2=3_7       Length=1    units=m Linecode=Line_MV_185
New Line.Feeder3.8      Bus1=3_7         Bus2=3_8       Length=1    units=m Linecode=Line_MV_185
New Line.Feeder3.9      Bus1=3_8         Bus2=3_9       Length=1    units=m Linecode=Line_MV_185
New Line.Feeder3.10     Bus1=3_9         Bus2=3_10      Length=1    units=m Linecode=Line_MV_185
New Line.Feeder3.11	Bus1=3_10       Bus2=3_11	Length=1    units=m Linecode=Line_MV_185
New Line.Feeder3.12	Bus1=3_11	Bus2=3_12	Length=1    units=m Linecode=Line_MV_185
New Line.Feeder3.13	Bus1=3_12	Bus2=3_13	Length=1	units=m	Linecode=Line_MV_185
New Line.Feeder3.14	Bus1=3_13	Bus2=3_14	Length=1	units=m	Linecode=Line_MV_185
New Line.Feeder3.15	Bus1=3_14	Bus2=3_15	Length=1	units=m	Linecode=Line_MV_185
New Line.Feeder3.16	Bus1=3_15	Bus2=3_16	Length=1	units=m	Linecode=Line_MV_185
New Line.Feeder3.17	Bus1=3_16	Bus2=3_17	Length=1	units=m	Linecode=Line_MV_185
New Line.Feeder3.18	Bus1=3_17	Bus2=3_18	Length=1	units=m	Linecode=Line_MV_185
New Line.Feeder3.19	Bus1=3_18	Bus2=3_19	Length=1	units=m	Linecode=Line_MV_185
New Line.Feeder3.20	Bus1=3_19	Bus2=3_20	Length=1	units=m	Linecode=Line_MV_185
New Line.Feeder3.21	Bus1=3_20	Bus2=3_21	Length=1	units=m	Linecode=Line_MV_185
New Line.Feeder3.22	Bus1=3_21	Bus2=3_22	Length=1	units=m	Linecode=Line_MV_185
New Line.Feeder3.23	Bus1=3_22	Bus2=3_23	Length=1	units=m	Linecode=Line_MV_185
New Line.Feeder3.24	Bus1=3_23	Bus2=3_24	Length=1	units=m	Linecode=Line_MV_185
New Line.Feeder3.25	Bus1=3_24	Bus2=3_25	Length=1	units=m	Linecode=Line_MV_185
New Line.Feeder3.26	Bus1=3_25	Bus2=3_26	Length=1	units=m	Linecode=Line_MV_185
New Line.Feeder3.27	Bus1=3_26	Bus2=3_27	Length=1	units=m	Linecode=Line_MV_185
New Line.Feeder3.28	Bus1=3_27	Bus2=3_28	Length=1	units=m	Linecode=Line_MV_185
New Line.Feeder3.29	Bus1=3_28	Bus2=3_29	Length=1	units=m	Linecode=Line_MV_185
New Line.Feeder3.30	Bus1=3_29	Bus2=3_30	Length=1	units=m	Linecode=Line_MV_185
New Line.Feeder3.31	Bus1=3_30	Bus2=3_31	Length=1	units=m	Linecode=Line_MV_185
New Line.Feeder3.32	Bus1=3_31	Bus2=3_32	Length=1	units=m	Linecode=Line_MV_185
New Line.Feeder3.33	Bus1=3_32	Bus2=3_33	Length=1	units=m	Linecode=Line_MV_185
New Line.Feeder3.34	Bus1=3_33	Bus2=3_34	Length=1	units=m	Linecode=Line_MV_185
New Line.Feeder3.35	Bus1=3_34	Bus2=3_35	Length=1	units=m	Linecode=Line_MV_185
New Line.Feeder3.36	Bus1=3_35	Bus2=3_36	Length=1	units=m	Linecode=Line_MV_185
New Line.Feeder3.37	Bus1=3_36	Bus2=3_37	Length=1	units=m	Linecode=Line_MV_185
New Line.Feeder3.38	Bus1=3_37	Bus2=3_38	Length=1	units=m	Linecode=Line_MV_185
New Line.Feeder3.39	Bus1=3_38	Bus2=3_39	Length=1	units=m	Linecode=Line_MV_185
New Line.Feeder3.40	Bus1=3_39	Bus2=3_40	Length=1	units=m	Linecode=Line_MV_185
New Line.Feeder3.41	Bus1=3_40	Bus2=3_41	Length=1	units=m	Linecode=Line_MV_185
New Line.Feeder3.42	Bus1=3_41	Bus2=3_42	Length=1	units=m	Linecode=Line_MV_185
New Line.Feeder3.43	Bus1=3_42	Bus2=3_43	Length=1	units=m	Linecode=Line_MV_185
New Line.Feeder3.44	Bus1=3_43	Bus2=3_44	Length=1	units=m	Linecode=Line_MV_185
New Line.Feeder3.45	Bus1=3_44	Bus2=3_45	Length=1	units=m	Linecode=Line_MV_185
New Line.Feeder3.46	Bus1=3_45	Bus2=3_46	Length=1	units=m	Linecode=Line_MV_185
New Line.Feeder3.47	Bus1=3_46	Bus2=3_47	Length=1	units=m	Linecode=Line_MV_185
New Line.Feeder3.48	Bus1=3_47	Bus2=3_48	Length=1	units=m	Linecode=Line_MV_185


New Line.Lateral3_start_1	Bus1=3_47	Bus2=3_49	Length=1 units=m	Linecode=Line_MV_95
New Line.Lateral3.50	Bus1=3_49	Bus2=3_50	Length=1	units=m	Linecode=Line_MV_95
New Line.Lateral3.51	Bus1=3_50	Bus2=3_51	Length=1	units=m	Linecode=Line_MV_95
New Line.Lateral3.52	Bus1=3_51	Bus2=3_52	Length=1	units=m	Linecode=Line_MV_95
New Line.Lateral3.53	Bus1=3_52	Bus2=3_53	Length=1	units=m	Linecode=Line_MV_95
New Line.Lateral3.54	Bus1=3_53	Bus2=3_54	Length=1	units=m	Linecode=Line_MV_95
New Line.Lateral3.55	Bus1=3_54	Bus2=3_55	Length=1	units=m	Linecode=Line_MV_95
New Line.Lateral3.56	Bus1=3_55	Bus2=3_56	Length=1	units=m	Linecode=Line_MV_95
New Line.Lateral3.57	Bus1=3_56	Bus2=3_57	Length=1	units=m	Linecode=Line_MV_95
New Line.Lateral3.58	Bus1=3_57	Bus2=3_58	Length=1	units=m	Linecode=Line_MV_95
New Line.Lateral3.59	Bus1=3_58	Bus2=3_59	Length=1	units=m	Linecode=Line_MV_95
New Line.Lateral3.60	Bus1=3_59	Bus2=3_60	Length=1	units=m	Linecode=Line_MV_95
New Line.Lateral3.61	Bus1=3_60       Bus2=3_61	Length=1        units=m Linecode=Line_MV_95
New Line.Lateral3.62	Bus1=3_61	Bus2=3_62	Length=1	units=m	Linecode=Line_MV_95
New Line.Lateral3.63	Bus1=3_62	Bus2=3_63	Length=1	units=m	Linecode=Line_MV_95
New Line.Lateral3.64	Bus1=3_63	Bus2=3_64	Length=1	units=m	Linecode=Line_MV_95
New Line.Lateral3.65	Bus1=3_64	Bus2=3_65	Length=1	units=m	Linecode=Line_MV_95
New Line.Lateral3.66	Bus1=3_65	Bus2=3_66	Length=1	units=m	Linecode=Line_MV_95
New Line.Lateral3.67	Bus1=3_66	Bus2=3_67	Length=1	units=m	Linecode=Line_MV_95
New Line.Lateral3.68	Bus1=3_67	Bus2=3_68	Length=1	units=m	Linecode=Line_MV_95
New Line.Lateral3.69	Bus1=3_68	Bus2=3_69	Length=1	units=m	Linecode=Line_MV_95
New Line.Lateral3.70	Bus1=3_69	Bus2=3_70	Length=1	units=m	Linecode=Line_MV_95
New Line.Lateral3.71	Bus1=3_70	Bus2=3_71	Length=1	units=m	Linecode=Line_MV_95
New Line.Lateral3.72	Bus1=3_71	Bus2=3_72	Length=1	units=m	Linecode=Line_MV_95
New Line.Lateral3.73	Bus1=3_72	Bus2=3_73	Length=1	units=m	Linecode=Line_MV_95
New Line.Lateral3.74	Bus1=3_73	Bus2=3_74	Length=1	units=m	Linecode=Line_MV_95
New Line.Lateral3.75	Bus1=3_74	Bus2=3_75	Length=1	units=m	Linecode=Line_MV_95
New Line.Lateral3.76	Bus1=3_75	Bus2=3_76	Length=1	units=m	Linecode=Line_MV_95
New Line.Lateral3.77	Bus1=3_76	Bus2=3_77	Length=1	units=m	Linecode=Line_MV_95
New Line.Lateral3.78	Bus1=3_77	Bus2=3_78	Length=1	units=m	Linecode=Line_MV_95
New Line.Lateral3.79	Bus1=3_78	Bus2=3_79	Length=1	units=m	Linecode=Line_MV_95
New Line.Lateral3.80	Bus1=3_79	Bus2=3_80	Length=1	units=m	Linecode=Line_MV_95
New Line.Lateral3.81	Bus1=3_80	Bus2=3_81	Length=1	units=m	Linecode=Line_MV_95
New Line.Lateral3.82	Bus1=3_81	Bus2=3_82	Length=1	units=m	Linecode=Line_MV_95
New Line.Lateral3.83	Bus1=3_82	Bus2=3_83	Length=1	units=m	Linecode=Line_MV_95
New Line.Lateral3.84	Bus1=3_83	Bus2=3_84	Length=1	units=m	Linecode=Line_MV_95
New Line.Lateral3.85	Bus1=3_84	Bus2=3_85	Length=1	units=m	Linecode=Line_MV_95
New Line.Lateral3.86	Bus1=3_85	Bus2=3_86	Length=1	units=m	Linecode=Line_MV_95
New Line.Lateral3.87	Bus1=3_86	Bus2=3_87	Length=1	units=m	Linecode=Line_MV_95
New Line.Lateral3.88	Bus1=3_87	Bus2=3_88	Length=1	units=m	Linecode=Line_MV_95
New Line.Lateral3.89	Bus1=3_88	Bus2=3_89	Length=1	units=m	Linecode=Line_MV_95
New Line.Lateral3.90	Bus1=3_89	Bus2=3_90	Length=1	units=m	Linecode=Line_MV_95 
New Line.Lateral3.91	Bus1=3_90       Bus2=3_91	Length=1        units=m Linecode=Line_MV_95
New Line.Lateral3.92	Bus1=3_91	Bus2=3_92	Length=1	units=m	Linecode=Line_MV_95
New Line.Lateral3.93	Bus1=3_92	Bus2=3_93	Length=1	units=m	Linecode=Line_MV_95
New Line.Lateral3.94	Bus1=3_93	Bus2=3_94	Length=1	units=m	Linecode=Line_MV_95
New Line.Lateral3.95	Bus1=3_94	Bus2=3_95	Length=1	units=m	Linecode=Line_MV_95
New Line.Lateral3.96	Bus1=3_95	Bus2=3_96	Length=1	units=m	Linecode=Line_MV_95
New Line.Lateral3.97	Bus1=3_96       Bus2=3_97	Length=1	units=m	Linecode=Line_MV_95
New Line.Lateral3.98	Bus1=3_97       Bus2=3_98	Length=1	units=m	Linecode=Line_MV_95
New Line.Lateral3.99	Bus1=3_98       Bus2=3_99       Length=1	units=m	Linecode=Line_MV_95
New Line.Lateral3.100	Bus1=3_99       Bus2=3_100      Length=1        units=m Linecode=Line_MV_95
New Line.Lateral3.101	Bus1=3_100      Bus2=3_101      Length=1        units=m Linecode=Line_MV_95
New Line.Lateral3.102	Bus1=3_101      Bus2=3_102      Length=1        units=m Linecode=Line_MV_95
New Line.Lateral3.103	Bus1=3_102      Bus2=3_103      Length=1        units=m Linecode=Line_MV_95
New Line.Lateral3.104	Bus1=3_103      Bus2=3_104      Length=1        units=m Linecode=Line_MV_95
New Line.Lateral3.105	Bus1=3_104      Bus2=3_105      Length=1        units=m Linecode=Line_MV_95
New Line.Lateral3.106	Bus1=3_105 Bus2=3_106 Length=1  units=m Linecode=Line_MV_95
New Line.Lateral3.107	Bus1=3_106 Bus2=3_107 Length=1  units=m Linecode=Line_MV_95
New Line.Lateral3.108	Bus1=3_107 Bus2=3_108 Length=1	units=m	Linecode=Line_MV_95
New Line.Lateral3.109	Bus1=3_108 Bus2=3_109 Length=1	units=m	Linecode=Line_MV_95
New Line.Lateral3.110	Bus1=3_109 Bus2=3_110 Length=1	units=m	Linecode=Line_MV_95
New Line.Lateral3.111	Bus1=3_110 Bus2=3_111 Length=1	units=m	Linecode=Line_MV_95
New Line.Lateral3.112	Bus1=3_111 Bus2=3_112 Length=1	units=m	Linecode=Line_MV_95
New Line.Lateral3.113	Bus1=3_112 Bus2=3_113 Length=1	units=m	Linecode=Line_MV_95
New Line.Lateral3.114	Bus1=3_113 Bus2=3_114 Length=1	units=m	Linecode=Line_MV_95
New Line.Lateral3.115	Bus1=3_114 Bus2=3_115 Length=1	units=m	Linecode=Line_MV_95
New Line.Lateral3.116	Bus1=3_115 Bus2=3_116 Length=1	units=m	Linecode=Line_MV_95
New Line.Lateral3.117	Bus1=3_116 Bus2=3_117 Length=1	units=m	Linecode=Line_MV_95
New Line.Lateral3.118	Bus1=3_117 Bus2=3_118 Length=1	units=m	Linecode=Line_MV_95
New Line.Lateral3.119	Bus1=3_118 Bus2=3_119 Length=1	units=m	Linecode=Line_MV_95
New Line.Lateral3.120	Bus1=3_119 Bus2=3_120 Length=1	units=m	Linecode=Line_MV_95
New Line.Lateral3.121	Bus1=3_120 Bus2=3_121 Length=1  units=m Linecode=Line_MV_95
New Line.Lateral3.122	Bus1=3_121 Bus2=3_122 Length=1	units=m	Linecode=Line_MV_95
New Line.Lateral3.123	Bus1=3_122 Bus2=3_123 Length=1	units=m	Linecode=Line_MV_95
New Line.Lateral3.124	Bus1=3_123 Bus2=3_124 Length=1	units=m	Linecode=Line_MV_95
New Line.Lateral3.125	Bus1=3_124 Bus2=3_125 Length=1	units=m	Linecode=Line_MV_95
New Line.Lateral3.126	Bus1=3_125 Bus2=3_126 Length=1	units=m	Linecode=Line_MV_95
New Line.Lateral3.127	Bus1=3_126 Bus2=3_127 Length=1	units=m	Linecode=Line_MV_95
New Line.Lateral3.128	Bus1=3_127 Bus2=3_128 Length=1	units=m	Linecode=Line_MV_95
New Line.Lateral3.129	Bus1=3_128 Bus2=3_129 Length=1	units=m	Linecode=Line_MV_95
New Line.Lateral3.130	Bus1=3_129 Bus2=3_130 Length=1	units=m	Linecode=Line_MV_95
New Line.Lateral3.131	Bus1=3_130 Bus2=3_131 Length=1	units=m	Linecode=Line_MV_95
New Line.Lateral3.132	Bus1=3_131 Bus2=3_132 Length=1	units=m	Linecode=Line_MV_95
New Line.Lateral3.133	Bus1=3_132 Bus2=3_133 Length=1	units=m	Linecode=Line_MV_95
New Line.Lateral3.134	Bus1=3_133 Bus2=3_134 Length=1	units=m	Linecode=Line_MV_95
New Line.Lateral3.135	Bus1=3_134 Bus2=3_135 Length=1	units=m	Linecode=Line_MV_95
New Line.Lateral3.136	Bus1=3_135 Bus2=3_136 Length=1	units=m	Linecode=Line_MV_95
New Line.Lateral3.137	Bus1=3_136 Bus2=3_137 Length=1	units=m	Linecode=Line_MV_95
New Line.Lateral3.138	Bus1=3_137 Bus2=3_138 Length=1	units=m	Linecode=Line_MV_95
New Line.Lateral3.139	Bus1=3_138 Bus2=3_139 Length=1	units=m	Linecode=Line_MV_95
New Line.Lateral3.140	Bus1=3_139 Bus2=3_140 Length=1	units=m	Linecode=Line_MV_95
New Line.Lateral3.141	Bus1=3_140 Bus2=3_141 Length=1	units=m	Linecode=Line_MV_95
New Line.Lateral3.142	Bus1=3_141 Bus2=3_142 Length=1	units=m	Linecode=Line_MV_95
New Line.Lateral3.143	Bus1=3_142 Bus2=3_143 Length=1	units=m	Linecode=Line_MV_95
New Line.Lateral3.144	Bus1=3_143 Bus2=3_144 Length=1	units=m	Linecode=Line_MV_95
New Line.Lateral3.145	Bus1=3_144 Bus2=3_145 Length=1	units=m	Linecode=Line_MV_95
New Line.Lateral3.146	Bus1=3_145 Bus2=3_146 Length=1	units=m	Linecode=Line_MV_95
New Line.Lateral3.147	Bus1=3_146 Bus2=3_147 Length=1	units=m	Linecode=Line_MV_95
New Line.Lateral3.148	Bus1=3_147 Bus2=3_148 Length=1	units=m	Linecode=Line_MV_95
New Line.Lateral3.149	Bus1=3_148 Bus2=3_149 Length=1	units=m	Linecode=Line_MV_95
New Line.Lateral3.150	Bus1=3_149 Bus2=3_150 Length=1	units=m	Linecode=Line_MV_95
New Line.Lateral3.151	Bus1=3_150 Bus2=3_151 Length=1  units=m Linecode=Line_MV_95
New Line.Lateral3.152	Bus1=3_151 Bus2=3_152 Length=1	units=m	Linecode=Line_MV_95
New Line.Lateral3.153	Bus1=3_152 Bus2=3_153 Length=1	units=m	Linecode=Line_MV_95
New Line.Lateral3.154	Bus1=3_153 Bus2=3_154 Length=1	units=m	Linecode=Line_MV_95
New Line.Lateral3.155	Bus1=3_154 Bus2=3_155 Length=1	units=m	Linecode=Line_MV_95
New Line.Lateral3.156	Bus1=3_155 Bus2=3_156 Length=1	units=m	Linecode=Line_MV_95
New Line.Lateral3.157	Bus1=3_156 Bus2=3_157 Length=1	units=m	Linecode=Line_MV_95
New Line.Lateral3.158	Bus1=3_157 Bus2=3_158 Length=1	units=m	Linecode=Line_MV_95
New Line.Lateral3.159	Bus1=3_158 Bus2=3_159 Length=1	units=m	Linecode=Line_MV_95
New Line.Lateral3.160	Bus1=3_159 Bus2=3_160 Length=1	units=m	Linecode=Line_MV_95
New Line.Lateral3.161	Bus1=3_160 Bus2=3_161 Length=1	units=m	Linecode=Line_MV_95
New Line.Lateral3.162	Bus1=3_161 Bus2=3_162 Length=1	units=m	Linecode=Line_MV_95
New Line.Lateral3.163	Bus1=3_162 Bus2=3_163 Length=1	units=m	Linecode=Line_MV_95
New Line.Lateral3.164	Bus1=3_163 Bus2=3_164 Length=1	units=m	Linecode=Line_MV_95
New Line.Lateral3.165	Bus1=3_164 Bus2=3_165 Length=1	units=m	Linecode=Line_MV_95
New Line.Lateral3.166	Bus1=3_165 Bus2=3_166 Length=1	units=m	Linecode=Line_MV_95
New Line.Lateral3.167	Bus1=3_166 Bus2=3_167 Length=1	units=m	Linecode=Line_MV_95
New Line.Lateral3.168	Bus1=3_167 Bus2=3_168 Length=1	units=m	Linecode=Line_MV_95
New Line.Lateral3.169	Bus1=3_168 Bus2=3_169 Length=1	units=m	Linecode=Line_MV_95
New Line.Lateral3.170	Bus1=3_169 Bus2=3_170 Length=1	units=m	Linecode=Line_MV_95
New Line.Lateral3.171	Bus1=3_170 Bus2=3_171 Length=1	units=m	Linecode=Line_MV_95
New Line.Lateral3.172	Bus1=3_171 Bus2=3_172 Length=1	units=m	Linecode=Line_MV_95
New Line.Lateral3.173	Bus1=3_172 Bus2=3_173 Length=1	units=m	Linecode=Line_MV_95
New Line.Lateral3.174	Bus1=3_173 Bus2=3_174 Length=1	units=m	Linecode=Line_MV_95
New Line.Lateral3.175	Bus1=3_174 Bus2=3_175 Length=1	units=m	Linecode=Line_MV_95
New Line.Lateral3.176	Bus1=3_175 Bus2=3_176 Length=1	units=m	Linecode=Line_MV_95
New Line.Lateral3.177 Bus1=3_176 Bus2=3_177 units=m Linecode=Line_MV_95 Length=1
New Line.Lateral3.178 Bus1=3_177 Bus2=3_178 units=m Linecode=Line_MV_95 Length=1 
New Line.Lateral3.179 Bus1=3_178 Bus2=3_179 units=m Linecode=Line_MV_95 Length=1
New Line.Lateral3.180 Bus1=3_179 Bus2=3_180 units=m Linecode=Line_MV_95 Length=1 
New Line.Lateral3.181 Bus1=3_180 Bus2=3_181 units=m Linecode=Line_MV_95 Length=1 
New Line.Lateral3.182 Bus1=3_181 Bus2=3_182 units=m Linecode=Line_MV_95 Length=1 
New Line.Lateral3.183 Bus1=3_182 Bus2=3_183 units=m Linecode=Line_MV_95 Length=1 
New Line.Lateral3.184 Bus1=3_183 Bus2=3_184 units=m Linecode=Line_MV_95 Length=1 
New Line.Lateral3.185 Bus1=3_184 Bus2=3_185 units=m Linecode=Line_MV_95 Length=1 
New Line.Lateral3.186 Bus1=3_185 Bus2=3_186 units=m Linecode=Line_MV_95 Length=1 
New Line.Lateral3.187 Bus1=3_186 Bus2=3_187 units=m Linecode=Line_MV_95 Length=1 
New Line.Lateral3.188 Bus1=3_187 Bus2=3_188 units=m Linecode=Line_MV_95 Length=1 
New Line.Lateral3.189 Bus1=3_188 Bus2=3_189 units=m Linecode=Line_MV_95 Length=1 
New Line.Lateral3.190 Bus1=3_189 Bus2=3_190 units=m Linecode=Line_MV_95 Length=1 
New Line.Lateral3.191 Bus1=3_190 Bus2=3_191 units=m Linecode=Line_MV_95 Length=1 
New Line.Lateral3.192 Bus1=3_191 Bus2=3_192 units=m Linecode=Line_MV_95 Length=1 
New Line.Lateral3.193 Bus1=3_192 Bus2=3_193 units=m Linecode=Line_MV_95 Length=1 
New Line.Lateral3.194 Bus1=3_193 Bus2=3_194 units=m Linecode=Line_MV_95 Length=1 
New Line.Lateral3.195 Bus1=3_194 Bus2=3_195 units=m Linecode=Line_MV_95 Length=1 
New Line.Lateral3.196 Bus1=3_195 Bus2=3_196 units=m Linecode=Line_MV_95 Length=1 
New Line.Lateral3.197 Bus1=3_196 Bus2=3_197 units=m Linecode=Line_MV_95 Length=1 
New Line.Lateral3.198 Bus1=3_197 Bus2=3_198 units=m Linecode=Line_MV_95 Length=1 
New Line.Lateral3.199 Bus1=3_198 Bus2=3_199 units=m Linecode=Line_MV_95 Length=1 
New Line.Lateral3.200 Bus1=3_199 Bus2=3_200 units=m Linecode=Line_MV_95 Length=1 
New Line.Lateral3.201 Bus1=3_200 Bus2=3_201 units=m Linecode=Line_MV_95 Length=1 
New Line.Lateral3.202 Bus1=3_201 Bus2=3_202 units=m Linecode=Line_MV_95 Length=1 
New Line.Lateral3.203 Bus1=3_202 Bus2=3_203 units=m Linecode=Line_MV_95 Length=1 
New Line.Lateral3.204 Bus1=3_203 Bus2=3_204 units=m Linecode=Line_MV_95 Length=1 
New Line.Lateral3.205 Bus1=3_204 Bus2=3_205 units=m Linecode=Line_MV_95 Length=1 
New Line.Lateral3.206 Bus1=3_205 Bus2=3_206 units=m Linecode=Line_MV_95 Length=1 
New Line.Lateral3.207 Bus1=3_206 Bus2=3_207 units=m Linecode=Line_MV_95 Length=1 
New Line.Lateral3.208 Bus1=3_207 Bus2=3_208 units=m Linecode=Line_MV_95 Length=1 
New Line.Lateral3.209 Bus1=3_208 Bus2=3_209 units=m Linecode=Line_MV_95 Length=1 
New Line.Lateral3.210 Bus1=3_209 Bus2=3_210 units=m Linecode=Line_MV_95 Length=1 
New Line.Lateral3.211 Bus1=3_210 Bus2=3_211 units=m Linecode=Line_MV_95 Length=1 
New Line.Lateral3.212 Bus1=3_211 Bus2=3_212 units=m Linecode=Line_MV_95 Length=1 
New Line.Lateral3.213 Bus1=3_212 Bus2=3_213 units=m Linecode=Line_MV_95 Length=1 
New Line.Lateral3.214 Bus1=3_213 Bus2=3_214 units=m Linecode=Line_MV_95 Length=1 
New Line.Lateral3.215 Bus1=3_214 Bus2=3_215 units=m Linecode=Line_MV_95 Length=1 
New Line.Lateral3.216 Bus1=3_215 Bus2=3_216 units=m Linecode=Line_MV_95 Length=1 
New Line.Lateral3.217 Bus1=3_216 Bus2=3_217 units=m Linecode=Line_MV_95 Length=1 
New Line.Lateral3.218 Bus1=3_217 Bus2=3_218 units=m Linecode=Line_MV_95 Length=1 
New Line.Lateral3.219 Bus1=3_218 Bus2=3_219 units=m Linecode=Line_MV_95 Length=1 
New Line.Lateral3.220 Bus1=3_219 Bus2=3_220 units=m Linecode=Line_MV_95 Length=1 
New Line.Lateral3.221 Bus1=3_220 Bus2=3_221 units=m Linecode=Line_MV_95 Length=1 
New Line.Lateral3.222 Bus1=3_221 Bus2=3_222 units=m Linecode=Line_MV_95 Length=1 
New Line.Lateral3.223 Bus1=3_222 Bus2=3_223 units=m Linecode=Line_MV_95 Length=1 
New Line.Lateral3.224 Bus1=3_223 Bus2=3_224 units=m Linecode=Line_MV_95 Length=1 
New Line.Lateral3.225 Bus1=3_224 Bus2=3_225 units=m Linecode=Line_MV_95 Length=1
New Line.Lateral3.226 Bus1=3_225 Bus2=3_226 units=m Linecode=Line_MV_95 Length=1 
New Line.Lateral3.227 Bus1=3_226 Bus2=3_227 units=m Linecode=Line_MV_95 Length=1 
New Line.Lateral3.228 Bus1=3_227 Bus2=3_228 units=m Linecode=Line_MV_95 Length=1 
New Line.Lateral3.229 Bus1=3_228 Bus2=3_229 units=m Linecode=Line_MV_95 Length=1 
New Line.Lateral3.230 Bus1=3_229 Bus2=3_230 units=m Linecode=Line_MV_95 Length=1 
New Line.Lateral3.231 Bus1=3_230 Bus2=3_231 units=m Linecode=Line_MV_95 Length=1 
New Line.Lateral3.232 Bus1=3_231 Bus2=3_232 units=m Linecode=Line_MV_95 Length=1 
New Line.Lateral3.233 Bus1=3_232 Bus2=3_233 units=m Linecode=Line_MV_95 Length=1 
New Line.Lateral3_end_1 Bus1=3_233 Bus2=3_234 units=m Linecode=Line_MV_95 Length=1


New Line.Feeder3.235 Bus1=3_48 Bus2=3_235 units=m Linecode=Line_MV_185 Length=1 
New Line.Feeder3.236 Bus1=3_235 Bus2=3_236 units=m Linecode=Line_MV_185 Length=1 
New Line.Feeder3.237 Bus1=3_235 Bus2=3_237 units=m Linecode=Line_MV_185 Length=1 
New Line.Feeder3.238 Bus1=3_237 Bus2=3_238 units=m Linecode=Line_MV_185 Length=1 
New Line.Feeder3.239 Bus1=3_238 Bus2=3_239 units=m Linecode=Line_MV_185 Length=1 
New Line.Feeder3.240 Bus1=3_239 Bus2=3_240 units=m Linecode=Line_MV_185 Length=1 
New Line.Feeder3.241 Bus1=3_240 Bus2=3_241 units=m Linecode=Line_MV_185 Length=1 
New Line.Feeder3.242 Bus1=3_241 Bus2=3_242 units=m Linecode=Line_MV_185 Length=1 
New Line.Feeder3.243 Bus1=3_242 Bus2=3_243 units=m Linecode=Line_MV_185 Length=1
New Line.Feeder3.244 Bus1=3_243 Bus2=3_244 units=m Linecode=Line_MV_185 Length=1 
New Line.Feeder3.245 Bus1=3_244 Bus2=3_245 units=m Linecode=Line_MV_185 Length=1 
New Line.Feeder3.246 Bus1=3_245 Bus2=3_246 units=m Linecode=Line_MV_185 Length=1
New Line.Feeder3.247 Bus1=3_246 Bus2=3_247 units=m Linecode=Line_MV_185 Length=1 
New Line.Feeder3.248 Bus1=3_247 Bus2=3_248 units=m Linecode=Line_MV_185 Length=1 
New Line.Feeder3.249 Bus1=3_248 Bus2=3_249 units=m Linecode=Line_MV_185 Length=1 
New Line.Feeder3.250 Bus1=3_249 Bus2=3_250 units=m Linecode=Line_MV_185 Length=1 
New Line.Feeder3.251 Bus1=3_250 Bus2=3_251 units=m Linecode=Line_MV_185 Length=1 
New Line.Feeder3.252 Bus1=3_251 Bus2=3_252 units=m Linecode=Line_MV_185 Length=1 
New Line.Feeder3.253 Bus1=3_252 Bus2=3_253 units=m Linecode=Line_MV_185 Length=1 
New Line.Feeder3.254 Bus1=3_253 Bus2=3_254 units=m Linecode=Line_MV_185 Length=1 
New Line.Feeder3.255 Bus1=3_254 Bus2=3_255 units=m Linecode=Line_MV_185 Length=1 
New Line.Feeder3.256 Bus1=3_255 Bus2=3_256 units=m Linecode=Line_MV_185 Length=1 
New Line.Feeder3.257 Bus1=3_256 Bus2=3_257 units=m Linecode=Line_MV_185 Length=1 
New Line.Feeder3.258 Bus1=3_257 Bus2=3_258 units=m Linecode=Line_MV_185 Length=1 
New Line.Feeder3.259 Bus1=3_258 Bus2=3_259 units=m Linecode=Line_MV_185 Length=1 
New Line.Feeder3.260 Bus1=3_259 Bus2=3_260 units=m Linecode=Line_MV_185 Length=1 
New Line.Feeder3.261 Bus1=3_260 Bus2=3_261 units=m Linecode=Line_MV_185 Length=1 
New Line.Feeder3.262 Bus1=3_261 Bus2=3_262 units=m Linecode=Line_MV_185 Length=1 
New Line.Feeder3.263 Bus1=3_262 Bus2=3_263 units=m Linecode=Line_MV_185 Length=1 
New Line.Feeder3.264 Bus1=3_263 Bus2=3_264 units=m Linecode=Line_MV_185 Length=1 
New Line.Feeder3.265 Bus1=3_264 Bus2=3_265 units=m Linecode=Line_MV_185 Length=1 
New Line.Feeder3.266 Bus1=3_265 Bus2=3_266 units=m Linecode=Line_MV_185 Length=1 
New Line.Feeder3.267 Bus1=3_266 Bus2=3_267 units=m Linecode=Line_MV_185 Length=1 
New Line.Feeder3.268 Bus1=3_267 Bus2=3_268 units=m Linecode=Line_MV_185 Length=1 
New Line.Feeder3.269 Bus1=3_268 Bus2=3_269 units=m Linecode=Line_MV_185 Length=1 
New Line.Feeder3.270 Bus1=3_269 Bus2=3_270 units=m Linecode=Line_MV_185 Length=1
New Line.Feeder3.271 Bus1=3_270 Bus2=3_271 units=m Linecode=Line_MV_185 Length=1 
New Line.Feeder3.272 Bus1=3_271 Bus2=3_272 units=m Linecode=Line_MV_185 Length=1 
New Line.Feeder3.273 Bus1=3_272 Bus2=3_273 units=m Linecode=Line_MV_185 Length=1 
New Line.Feeder3.274 Bus1=3_273 Bus2=3_274 units=m Linecode=Line_MV_185 Length=1 
New Line.Feeder3.275 Bus1=3_274 Bus2=3_275 units=m Linecode=Line_MV_185 Length=1 
New Line.Feeder3.276 Bus1=3_275 Bus2=3_276 units=m Linecode=Line_MV_185 Length=1 
New Line.Feeder3.277 Bus1=3_276 Bus2=3_277 units=m Linecode=Line_MV_185 Length=1
New Line.Feeder3.278 Bus1=3_277 Bus2=3_278 units=m Linecode=Line_MV_185 Length=1 
New Line.Feeder3.279 Bus1=3_278 Bus2=3_279 units=m Linecode=Line_MV_185 Length=1 
New Line.Feeder3.280 Bus1=3_279 Bus2=3_280 units=m Linecode=Line_MV_185 Length=1 
New Line.Feeder3.281 Bus1=3_280 Bus2=3_281 units=m Linecode=Line_MV_185 Length=1 
New Line.Feeder3.282 Bus1=3_281 Bus2=3_282 units=m Linecode=Line_MV_185 Length=1 
New Line.Feeder3.283 Bus1=3_282 Bus2=3_283 units=m Linecode=Line_MV_185 Length=1 
New Line.Feeder3.284 Bus1=3_283 Bus2=3_284 units=m Linecode=Line_MV_185 Length=1 
New Line.Feeder3.285 Bus1=3_284 Bus2=3_285 units=m Linecode=Line_MV_185 Length=1 
New Line.Feeder3.286 Bus1=3_285 Bus2=3_286 units=m Linecode=Line_MV_185 Length=1 
New Line.Feeder3.287 Bus1=3_286 Bus2=3_287 units=m Linecode=Line_MV_185 Length=1 
New Line.Feeder3.288 Bus1=3_287 Bus2=3_288 units=m Linecode=Line_MV_185 Length=1 
New Line.Feeder3.289 Bus1=3_288 Bus2=3_289 units=m Linecode=Line_MV_185 Length=1 
New Line.Feeder3.290 Bus1=3_289 Bus2=3_290 units=m Linecode=Line_MV_185 Length=1 
New Line.Feeder3.291 Bus1=3_290 Bus2=3_291 units=m Linecode=Line_MV_185 Length=1 
New Line.Feeder3.292 Bus1=3_291 Bus2=3_292 units=m Linecode=Line_MV_185 Length=1 
New Line.Feeder3.293 Bus1=3_292 Bus2=3_293 units=m Linecode=Line_MV_185 Length=1 
New Line.Feeder3.294 Bus1=3_293 Bus2=3_294 units=m Linecode=Line_MV_185 Length=1 
New Line.Feeder3.295 Bus1=3_294 Bus2=3_295 units=m Linecode=Line_MV_185 Length=1 
New Line.Feeder3.296 Bus1=3_295 Bus2=3_296 units=m Linecode=Line_MV_185 Length=1 
New Line.Feeder3.297 Bus1=3_296 Bus2=3_297 units=m Linecode=Line_MV_185 Length=1 
New Line.Feeder3.298 Bus1=3_297 Bus2=3_298 units=m Linecode=Line_MV_185 Length=1 
New Line.Feeder3.299 Bus1=3_298 Bus2=3_299 units=m Linecode=Line_MV_185 Length=1 
New Line.Feeder3.300 Bus1=3_299 Bus2=3_300 units=m Linecode=Line_MV_185 Length=1 
New Line.Feeder3.301 Bus1=3_300 Bus2=3_301 units=m Linecode=Line_MV_185 Length=1 
New Line.Feeder3.302 Bus1=3_301 Bus2=3_302 units=m Linecode=Line_MV_185 Length=1 
New Line.Feeder3.303 Bus1=3_302 Bus2=3_303 units=m Linecode=Line_MV_185 Length=1 
New Line.Feeder3.304 Bus1=3_303 Bus2=3_304 units=m Linecode=Line_MV_185 Length=1 
New Line.Feeder3.305 Bus1=3_304 Bus2=3_305 units=m Linecode=Line_MV_185 Length=1 
New Line.Feeder3.306 Bus1=3_305 Bus2=3_306 units=m Linecode=Line_MV_185 Length=1 
New Line.Feeder3.307 Bus1=3_306 Bus2=3_307 units=m Linecode=Line_MV_185 Length=1 
New Line.Feeder3.308 Bus1=3_307 Bus2=3_308 units=m Linecode=Line_MV_185 Length=1 
New Line.Feeder3.309 Bus1=3_308 Bus2=3_309 units=m Linecode=Line_MV_185 Length=1 
New Line.Feeder3.310 Bus1=3_309 Bus2=3_310 units=m Linecode=Line_MV_185 Length=1 
New Line.Feeder3.311 Bus1=3_310 Bus2=3_311 units=m Linecode=Line_MV_185 Length=1 
New Line.Feeder3.312 Bus1=3_311 Bus2=3_312 units=m Linecode=Line_MV_185 Length=1 
New Line.Feeder3.313 Bus1=3_312 Bus2=3_313 units=m Linecode=Line_MV_185 Length=1 
New Line.Feeder3.314 Bus1=3_313 Bus2=3_314 units=m Linecode=Line_MV_185 Length=1 
New Line.Feeder3.315 Bus1=3_314 Bus2=3_315 units=m Linecode=Line_MV_185 Length=1
New Line.Feeder3.316 Bus1=3_315 Bus2=3_316 units=m Linecode=Line_MV_185 Length=1 
New Line.Feeder3.317 Bus1=3_316 Bus2=3_317 units=m Linecode=Line_MV_185 Length=1 
New Line.Feeder3.318 Bus1=3_317 Bus2=3_318 units=m Linecode=Line_MV_185 Length=1 
New Line.Feeder3.319 Bus1=3_318 Bus2=3_319 units=m Linecode=Line_MV_185 Length=1 
New Line.Feeder3.320 Bus1=3_319 Bus2=3_320 units=m Linecode=Line_MV_185 Length=1 
New Line.Feeder3.321 Bus1=3_320 Bus2=3_321 units=m Linecode=Line_MV_185 Length=1 
New Line.Feeder3.322 Bus1=3_321 Bus2=3_322 units=m Linecode=Line_MV_185 Length=1 
New Line.Feeder3.323 Bus1=3_322 Bus2=3_323 units=m Linecode=Line_MV_185 Length=1 
New Line.Feeder3.324 Bus1=3_323 Bus2=3_324 units=m Linecode=Line_MV_185 Length=1 
New Line.Feeder3.325 Bus1=3_324 Bus2=3_325 units=m Linecode=Line_MV_185 Length=1 
New Line.Feeder3.326 Bus1=3_325 Bus2=3_326 units=m Linecode=Line_MV_185 Length=1 
New Line.Feeder3.327 Bus1=3_326 Bus2=3_327 units=m Linecode=Line_MV_185 Length=1 
New Line.Feeder3.328 Bus1=3_327 Bus2=3_328 units=m Linecode=Line_MV_185 Length=1 
New Line.Feeder3.329 Bus1=3_328 Bus2=3_329 units=m Linecode=Line_MV_185 Length=1
 
New Line.Lateral3_start_2 Bus1=3_328 Bus2=3_330 units=m Linecode=Line_MV_95 Length=1
New Line.Lateral3.331 Bus1=3_330 Bus2=3_331 units=m Linecode=Line_MV_95 Length=1 
New Line.Lateral3.332 Bus1=3_331 Bus2=3_332 units=m Linecode=Line_MV_95 Length=1 
New Line.Lateral3.333 Bus1=3_332 Bus2=3_333 units=m Linecode=Line_MV_95 Length=1 
New Line.Lateral3.334 Bus1=3_333 Bus2=3_334 units=m Linecode=Line_MV_95 Length=1
New Line.Lateral3.335 Bus1=3_334 Bus2=3_335 units=m Linecode=Line_MV_95 Length=1 
New Line.Lateral3.336 Bus1=3_335 Bus2=3_336 units=m Linecode=Line_MV_95 Length=1 
New Line.Lateral3.337 Bus1=3_336 Bus2=3_337 units=m Linecode=Line_MV_95 Length=1 
New Line.Lateral3.338 Bus1=3_337 Bus2=3_338 units=m Linecode=Line_MV_95 Length=1 
New Line.Lateral3.339 Bus1=3_338 Bus2=3_339 units=m Linecode=Line_MV_95 Length=1 
New Line.Lateral3.340 Bus1=3_339 Bus2=3_340 units=m Linecode=Line_MV_95 Length=1 
New Line.Lateral3.341 Bus1=3_340 Bus2=3_341 units=m Linecode=Line_MV_95 Length=1 
New Line.Lateral3.342 Bus1=3_341 Bus2=3_342 units=m Linecode=Line_MV_95 Length=1 
New Line.Lateral3.343 Bus1=3_342 Bus2=3_343 units=m Linecode=Line_MV_95 Length=1 
New Line.Lateral3.344 Bus1=3_343 Bus2=3_344 units=m Linecode=Line_MV_95 Length=1 
New Line.Lateral3.345 Bus1=3_344 Bus2=3_345 units=m Linecode=Line_MV_95 Length=1 
New Line.Lateral3.346 Bus1=3_345 Bus2=3_346 units=m Linecode=Line_MV_95 Length=1 
New Line.Lateral3.347 Bus1=3_346 Bus2=3_347 units=m Linecode=Line_MV_95 Length=1 
New Line.Lateral3.348 Bus1=3_347 Bus2=3_348 units=m Linecode=Line_MV_95 Length=1 
New Line.Lateral3.349 Bus1=3_348 Bus2=3_349 units=m Linecode=Line_MV_95 Length=1
New Line.Lateral3.350 Bus1=3_349 Bus2=3_350 units=m Linecode=Line_MV_95 Length=1 
New Line.Lateral3.351 Bus1=3_350 Bus2=3_351 units=m Linecode=Line_MV_95 Length=1 
New Line.Lateral3.352 Bus1=3_351 Bus2=3_352 units=m Linecode=Line_MV_95 Length=1 
New Line.Lateral3.353 Bus1=3_352 Bus2=3_353 units=m Linecode=Line_MV_95 Length=1 
New Line.Lateral3.354 Bus1=3_353 Bus2=3_354 units=m Linecode=Line_MV_95 Length=1 
New Line.Lateral3.355 Bus1=3_354 Bus2=3_355 units=m Linecode=Line_MV_95 Length=1 
New Line.Lateral3.356 Bus1=3_355 Bus2=3_356 units=m Linecode=Line_MV_95 Length=1 
New Line.Lateral3.357 Bus1=3_356 Bus2=3_357 units=m Linecode=Line_MV_95 Length=1 
New Line.Lateral3.358 Bus1=3_357 Bus2=3_358 units=m Linecode=Line_MV_95 Length=1 
New Line.Lateral3.359 Bus1=3_358 Bus2=3_359 units=m Linecode=Line_MV_95 Length=1 
New Line.Lateral3.360 Bus1=3_359 Bus2=3_360 units=m Linecode=Line_MV_95 Length=1 
New Line.Lateral3.361 Bus1=3_360 Bus2=3_361 units=m Linecode=Line_MV_95 Length=1 
New Line.Lateral3.362 Bus1=3_361 Bus2=3_362 units=m Linecode=Line_MV_95 Length=1 
New Line.Lateral3.363 Bus1=3_362 Bus2=3_363 units=m Linecode=Line_MV_95 Length=1
New Line.Lateral3.364 Bus1=3_363 Bus2=3_364 units=m Linecode=Line_MV_95 Length=1 
New Line.Lateral3.365 Bus1=3_364 Bus2=3_365 units=m Linecode=Line_MV_95 Length=1 
New Line.Lateral3.366 Bus1=3_365 Bus2=3_366 units=m Linecode=Line_MV_95 Length=1 
New Line.Lateral3.367 Bus1=3_366 Bus2=3_367 units=m Linecode=Line_MV_95 Length=1 
New Line.Lateral3.368 Bus1=3_367 Bus2=3_368 units=m Linecode=Line_MV_95 Length=1 
New Line.Lateral3.369 Bus1=3_368 Bus2=3_369 units=m Linecode=Line_MV_95 Length=1 
New Line.Lateral3.370 Bus1=3_369 Bus2=3_370 units=m Linecode=Line_MV_95 Length=1 
New Line.Lateral3.371 Bus1=3_370 Bus2=3_371 units=m Linecode=Line_MV_95 Length=1 
New Line.Lateral3.372 Bus1=3_371 Bus2=3_372 units=m Linecode=Line_MV_95 Length=1 
New Line.Lateral3.373 Bus1=3_372 Bus2=3_373 units=m Linecode=Line_MV_95 Length=1 
New Line.Lateral3.374 Bus1=3_373 Bus2=3_374 units=m Linecode=Line_MV_95 Length=1 
New Line.Lateral3.375 Bus1=3_374 Bus2=3_375 units=m Linecode=Line_MV_95 Length=1 
New Line.Lateral3.376 Bus1=3_375 Bus2=3_376 units=m Linecode=Line_MV_95 Length=1 
New Line.Lateral3.377 Bus1=3_376 Bus2=3_377 units=m Linecode=Line_MV_95 Length=1 
New Line.Lateral3.378 Bus1=3_377 Bus2=3_378 units=m Linecode=Line_MV_95 Length=1 
New Line.Lateral3.379 Bus1=3_378 Bus2=3_379 units=m Linecode=Line_MV_95 Length=1 
New Line.Lateral3.380 Bus1=3_379 Bus2=3_380 units=m Linecode=Line_MV_95 Length=1 
New Line.Lateral3.381 Bus1=3_380 Bus2=3_381 units=m Linecode=Line_MV_95 Length=1 
New Line.Lateral3.382 Bus1=3_381 Bus2=3_382 units=m Linecode=Line_MV_95 Length=1 
New Line.Lateral3.383 Bus1=3_382 Bus2=3_383 units=m Linecode=Line_MV_95 Length=1 
New Line.Lateral3.384 Bus1=3_383 Bus2=3_384 units=m Linecode=Line_MV_95 Length=1
New Line.Lateral3.385 Bus1=3_384 Bus2=3_385 units=m Linecode=Line_MV_95 Length=1 
New Line.Lateral3.386 Bus1=3_385 Bus2=3_386 units=m Linecode=Line_MV_95 Length=1 
New Line.Lateral3.387 Bus1=3_386 Bus2=3_387 units=m Linecode=Line_MV_95 Length=1 
New Line.Lateral3.388 Bus1=3_387 Bus2=3_388 units=m Linecode=Line_MV_95 Length=1 
New Line.Lateral3.389 Bus1=3_388 Bus2=3_389 units=m Linecode=Line_MV_95 Length=1 
New Line.Lateral3.390 Bus1=3_389 Bus2=3_390 units=m Linecode=Line_MV_95 Length=1 
New Line.Lateral3.391 Bus1=3_390 Bus2=3_391 units=m Linecode=Line_MV_95 Length=1 
New Line.Lateral3.392 Bus1=3_391 Bus2=3_392 units=m Linecode=Line_MV_95 Length=1 
New Line.Lateral3.393 Bus1=3_392 Bus2=3_393 units=m Linecode=Line_MV_95 Length=1 
New Line.Lateral3.394 Bus1=3_393 Bus2=3_394 units=m Linecode=Line_MV_95 Length=1 
New Line.Lateral3.395 Bus1=3_394 Bus2=3_395 units=m Linecode=Line_MV_95 Length=1 
New Line.Lateral3.396 Bus1=3_395 Bus2=3_396 units=m Linecode=Line_MV_95 Length=1 
New Line.Lateral3.397 Bus1=3_396 Bus2=3_397 units=m Linecode=Line_MV_95 Length=1
New Line.Lateral3.398 Bus1=3_397 Bus2=3_398 units=m Linecode=Line_MV_95 Length=1 
New Line.Lateral3.399 Bus1=3_398 Bus2=3_399 units=m Linecode=Line_MV_95 Length=1 
New Line.Lateral3.400 Bus1=3_399 Bus2=3_400 units=m Linecode=Line_MV_95 Length=1 
New Line.Lateral3.401 Bus1=3_400 Bus2=3_401 units=m Linecode=Line_MV_95 Length=1 
New Line.Lateral3.402 Bus1=3_401 Bus2=3_402 units=m Linecode=Line_MV_95 Length=1 
New Line.Lateral3.403 Bus1=3_402 Bus2=3_403 units=m Linecode=Line_MV_95 Length=1 
New Line.Lateral3.404 Bus1=3_403 Bus2=3_404 units=m Linecode=Line_MV_95 Length=1 
New Line.Lateral3.405 Bus1=3_404 Bus2=3_405 units=m Linecode=Line_MV_95 Length=1 
New Line.Lateral3.406 Bus1=3_405 Bus2=3_406 units=m Linecode=Line_MV_95 Length=1 
New Line.Lateral3.407 Bus1=3_406 Bus2=3_407 units=m Linecode=Line_MV_95 Length=1 
New Line.Lateral3.408 Bus1=3_407 Bus2=3_408 units=m Linecode=Line_MV_95 Length=1 
New Line.Lateral3.409 Bus1=3_408 Bus2=3_409 units=m Linecode=Line_MV_95 Length=1 
New Line.Lateral3.410 Bus1=3_409 Bus2=3_410 units=m Linecode=Line_MV_95 Length=1 
New Line.Lateral3.411 Bus1=3_410 Bus2=3_411 units=m Linecode=Line_MV_95 Length=1 
New Line.Lateral3.412 Bus1=3_411 Bus2=3_412 units=m Linecode=Line_MV_95 Length=1 
New Line.Lateral3.413 Bus1=3_412 Bus2=3_413 units=m Linecode=Line_MV_95 Length=1 
New Line.Lateral3.414 Bus1=3_413 Bus2=3_414 units=m Linecode=Line_MV_95 Length=1 
New Line.Lateral3.415 Bus1=3_414 Bus2=3_415 units=m Linecode=Line_MV_95 Length=1 
New Line.Lateral3.416 Bus1=3_415 Bus2=3_416 units=m Linecode=Line_MV_95 Length=1 
New Line.Lateral3.417 Bus1=3_416 Bus2=3_417 units=m Linecode=Line_MV_95 Length=1
New Line.Lateral3.418 Bus1=3_417 Bus2=3_418 units=m Linecode=Line_MV_95 Length=1 
New Line.Lateral3.419 Bus1=3_418 Bus2=3_419 units=m Linecode=Line_MV_95 Length=1 
New Line.Lateral3.420 Bus1=3_419 Bus2=3_420 units=m Linecode=Line_MV_95 Length=1 
New Line.Lateral3.421 Bus1=3_420 Bus2=3_421 units=m Linecode=Line_MV_95 Length=1 
New Line.Lateral3.422 Bus1=3_421 Bus2=3_422 units=m Linecode=Line_MV_95 Length=1 
New Line.Lateral3.423 Bus1=3_422 Bus2=3_423 units=m Linecode=Line_MV_95 Length=1 
New Line.Lateral3.424 Bus1=3_423 Bus2=3_424 units=m Linecode=Line_MV_95 Length=1
New Line.Lateral3.425 Bus1=3_424 Bus2=3_425 units=m Linecode=Line_MV_95 Length=1 
New Line.Lateral3.426 Bus1=3_425 Bus2=3_426 units=m Linecode=Line_MV_95 Length=1 
New Line.Lateral3.427 Bus1=3_426 Bus2=3_427 units=m Linecode=Line_MV_95 Length=1 
New Line.Lateral3.428 Bus1=3_427 Bus2=3_428 units=m Linecode=Line_MV_95 Length=1 
New Line.Lateral3.429 Bus1=3_428 Bus2=3_439 units=m Linecode=Line_MV_95 Length=1 
New Line.Lateral3.430 Bus1=3_429 Bus2=3_430 units=m Linecode=Line_MV_95 Length=1 
New Line.Lateral3.431 Bus1=3_430 Bus2=3_431 units=m Linecode=Line_MV_95 Length=1 
New Line.Lateral3.432 Bus1=3_431 Bus2=3_432 units=m Linecode=Line_MV_95 Length=1 
New Line.Lateral3.433 Bus1=3_432 Bus2=3_433 units=m Linecode=Line_MV_95 Length=1 
New Line.Lateral3.434 Bus1=3_433 Bus2=3_434 units=m Linecode=Line_MV_95 Length=1 
New Line.Lateral3.435 Bus1=3_434 Bus2=3_435 units=m Linecode=Line_MV_95 Length=1 
New Line.Lateral3.436 Bus1=3_435 Bus2=3_436 units=m Linecode=Line_MV_95 Length=1 
New Line.Lateral3.437 Bus1=3_436 Bus2=3_437 units=m Linecode=Line_MV_95 Length=1 
New Line.Lateral3.438 Bus1=3_437 Bus2=3_438 units=m Linecode=Line_MV_95 Length=1 
New Line.Lateral3.439 Bus1=3_438 Bus2=3_439 units=m Linecode=Line_MV_95 Length=1 
New Line.Lateral3.440 Bus1=3_439 Bus2=3_440 units=m Linecode=Line_MV_95 Length=1 
New Line.Lateral3.441 Bus1=3_440 Bus2=3_441 units=m Linecode=Line_MV_95 Length=1 
New Line.Lateral3.442 Bus1=3_441 Bus2=3_442 units=m Linecode=Line_MV_95 Length=1 
New Line.Lateral3.443 Bus1=3_442 Bus2=3_443 units=m Linecode=Line_MV_95 Length=1 
New Line.Lateral3.444 Bus1=3_443 Bus2=3_444 units=m Linecode=Line_MV_95 Length=1 
New Line.Lateral3.445 Bus1=3_444 Bus2=3_445 units=m Linecode=Line_MV_95 Length=1 
New Line.Lateral3.446 Bus1=3_445 Bus2=3_446 units=m Linecode=Line_MV_95 Length=1 
New Line.Lateral3.447 Bus1=3_446 Bus2=3_447 units=m Linecode=Line_MV_95 Length=1 
New Line.Lateral3.448 Bus1=3_447 Bus2=3_448 units=m Linecode=Line_MV_95 Length=1 
New Line.Lateral3.449 Bus1=3_448 Bus2=3_449 units=m Linecode=Line_MV_95 Length=1 
New Line.Lateral3.450 Bus1=3_449 Bus2=3_450 units=m Linecode=Line_MV_95 Length=1 
New Line.Lateral3.451 Bus1=3_450 Bus2=3_451 units=m Linecode=Line_MV_95 Length=1 
New Line.Lateral3.452 Bus1=3_451 Bus2=3_452 units=m Linecode=Line_MV_95 Length=1 
New Line.Lateral3.453 Bus1=3_452 Bus2=3_453 units=m Linecode=Line_MV_95 Length=1 
New Line.Lateral3.454 Bus1=3_453 Bus2=3_454 units=m Linecode=Line_MV_95 Length=1
New Line.Lateral3.455 Bus1=3_454 Bus2=3_455 units=m Linecode=Line_MV_95 Length=1 
New Line.Lateral3.456 Bus1=3_455 Bus2=3_456 units=m Linecode=Line_MV_95 Length=1 
New Line.Lateral3.457 Bus1=3_456 Bus2=3_457 units=m Linecode=Line_MV_95 Length=1
New Line.Lateral3.458 Bus1=3_457 Bus2=3_458 units=m Linecode=Line_MV_95 Length=1 
New Line.Lateral3.459 Bus1=3_458 Bus2=3_459 units=m Linecode=Line_MV_95 Length=1 
New Line.Lateral3.460 Bus1=3_459 Bus2=3_460 units=m Linecode=Line_MV_95 Length=1 
New Line.Lateral3.461 Bus1=3_460 Bus2=3_461 units=m Linecode=Line_MV_95 Length=1 
New Line.Lateral3.462 Bus1=3_461 Bus2=3_462 units=m Linecode=Line_MV_95 Length=1 
New Line.Lateral3.463 Bus1=3_462 Bus2=3_463 units=m Linecode=Line_MV_95 Length=1 
New Line.Lateral3.464 Bus1=3_463 Bus2=3_464 units=m Linecode=Line_MV_95 Length=1 
New Line.Lateral3.465 Bus1=3_464 Bus2=3_465 units=m Linecode=Line_MV_95 Length=1 
New Line.Lateral3.466 Bus1=3_465 Bus2=3_466 units=m Linecode=Line_MV_95 Length=1 
New Line.Lateral3.467 Bus1=3_466 Bus2=3_467 units=m Linecode=Line_MV_95 Length=1 
New Line.Lateral3.468 Bus1=3_467 Bus2=3_468 units=m Linecode=Line_MV_95 Length=1
New Line.Lateral3.469 Bus1=3_468 Bus2=3_469 units=m Linecode=Line_MV_95 Length=1 
New Line.Lateral3.470 Bus1=3_469 Bus2=3_470 units=m Linecode=Line_MV_95 Length=1 
New Line.Lateral3.471 Bus1=3_470 Bus2=3_471 units=m Linecode=Line_MV_95 Length=1 
New Line.Lateral3.472 Bus1=3_471 Bus2=3_472 units=m Linecode=Line_MV_95 Length=1 
New Line.Lateral3.473 Bus1=3_472 Bus2=3_473 units=m Linecode=Line_MV_95 Length=1 
New Line.Lateral3.474 Bus1=3_473 Bus2=3_474 units=m Linecode=Line_MV_95 Length=1 
New Line.Lateral3.475 Bus1=3_474 Bus2=3_475 units=m Linecode=Line_MV_95 Length=1 
New Line.Lateral3.476 Bus1=3_475 Bus2=3_476 units=m Linecode=Line_MV_95 Length=1 
New Line.Lateral3.477 Bus1=3_476 Bus2=3_477 units=m Linecode=Line_MV_95 Length=1
New Line.Lateral3.478 Bus1=3_477 Bus2=3_478 units=m Linecode=Line_MV_95 Length=1 
New Line.Lateral3.479 Bus1=3_478 Bus2=3_479 units=m Linecode=Line_MV_95 Length=1 
New Line.Lateral3.480 Bus1=3_479 Bus2=3_480 units=m Linecode=Line_MV_95 Length=1 
New Line.Lateral3.481 Bus1=3_480 Bus2=3_481 units=m Linecode=Line_MV_95 Length=1 
New Line.Lateral3.482 Bus1=3_481 Bus2=3_482 units=m Linecode=Line_MV_95 Length=1 
New Line.Lateral3.483 Bus1=3_482 Bus2=3_483 units=m Linecode=Line_MV_95 Length=1 
New Line.Lateral3.484 Bus1=3_483 Bus2=3_484 units=m Linecode=Line_MV_95 Length=1 
New Line.Lateral3.485 Bus1=3_484 Bus2=3_485 units=m Linecode=Line_MV_95 Length=1 
New Line.Lateral3.486 Bus1=3_485 Bus2=3_486 units=m Linecode=Line_MV_95 Length=1 
New Line.Lateral3.487 Bus1=3_486 Bus2=3_487 units=m Linecode=Line_MV_95 Length=1 
New Line.Lateral3.488 Bus1=3_487 Bus2=3_488 units=m Linecode=Line_MV_95 Length=1 
New Line.Lateral3.489 Bus1=3_488 Bus2=3_489 units=m Linecode=Line_MV_95 Length=1 
New Line.Lateral3.490 Bus1=3_489 Bus2=3_490 units=m Linecode=Line_MV_95 Length=1 
New Line.Lateral3.491 Bus1=3_490 Bus2=3_491 units=m Linecode=Line_MV_95 Length=1 
New Line.Lateral3.492 Bus1=3_491 Bus2=3_492 units=m Linecode=Line_MV_95 Length=1 
New Line.Lateral3.493 Bus1=3_492 Bus2=3_493 units=m Linecode=Line_MV_95 Length=1 
New Line.Lateral3.494 Bus1=3_493 Bus2=3_494 units=m Linecode=Line_MV_95 Length=1 
New Line.Lateral3.495 Bus1=3_494 Bus2=3_495 units=m Linecode=Line_MV_95 Length=1 
New Line.Lateral3.496 Bus1=3_495 Bus2=3_496 units=m Linecode=Line_MV_95 Length=1 
New Line.Lateral3.497 Bus1=3_496 Bus2=3_497 units=m Linecode=Line_MV_95 Length=1
New Line.Lateral3.498 Bus1=3_497 Bus2=3_498 units=m Linecode=Line_MV_95 Length=1 
New Line.Lateral3.499 Bus1=3_498 Bus2=3_499 units=m Linecode=Line_MV_95 Length=1 
New Line.Lateral3.500 Bus1=3_499 Bus2=3_500 units=m Linecode=Line_MV_95 Length=1 
New Line.Lateral3.501 Bus1=3_500 Bus2=3_501 units=m Linecode=Line_MV_95 Length=1 
New Line.Lateral3.502 Bus1=3_501 Bus2=3_502 units=m Linecode=Line_MV_95 Length=1 
New Line.Lateral3.503 Bus1=3_502 Bus2=3_503 units=m Linecode=Line_MV_95 Length=1 
New Line.Lateral3.504 Bus1=3_503 Bus2=3_504 units=m Linecode=Line_MV_95 Length=1 
New Line.Lateral3.505 Bus1=3_504 Bus2=3_505 units=m Linecode=Line_MV_95 Length=1 
New Line.Lateral3.506 Bus1=3_505 Bus2=3_506 units=m Linecode=Line_MV_95 Length=1 
New Line.Lateral3.507 Bus1=3_506 Bus2=3_507 units=m Linecode=Line_MV_95 Length=1 
New Line.Lateral3.508 Bus1=3_507 Bus2=3_508 units=m Linecode=Line_MV_95 Length=1 
New Line.Lateral3.509 Bus1=3_508 Bus2=3_509 units=m Linecode=Line_MV_95 Length=1 
New Line.Lateral3.510 Bus1=3_509 Bus2=3_510 units=m Linecode=Line_MV_95 Length=1 
New Line.Lateral3.511 Bus1=3_510 Bus2=3_511 units=m Linecode=Line_MV_95 Length=1 
New Line.Lateral3.512 Bus1=3_511 Bus2=3_512 units=m Linecode=Line_MV_95 Length=1
New Line.Lateral3.513 Bus1=3_512 Bus2=3_513 units=m Linecode=Line_MV_95 Length=1 
New Line.Lateral3.514 Bus1=3_513 Bus2=3_514 units=m Linecode=Line_MV_95 Length=1 
New Line.Lateral3_end_2 Bus1=3_514 Bus2=3_515 units=m Linecode=Line_MV_95 Length=1



New Line.Feeder3.516 Bus1=3_329 Bus2=3_516 units=m Linecode=Line_MV_185 Length=1 
New Line.Feeder3.517 Bus1=3_516 Bus2=3_517 units=m Linecode=Line_MV_185 Length=1 
New Line.Feeder3.518 Bus1=3_517 Bus2=3_518 units=m Linecode=Line_MV_185 Length=1 
New Line.Feeder3.519 Bus1=3_518 Bus2=3_519 units=m Linecode=Line_MV_185 Length=1  
New Line.Feeder3.520 Bus1=3_519 Bus2=3_520 units=m Linecode=Line_MV_185 Length=1
New Line.Feeder3.521 Bus1=3_520 Bus2=3_521 units=m Linecode=Line_MV_185 Length=1 
New Line.Feeder3.522 Bus1=3_521 Bus2=3_522 units=m Linecode=Line_MV_185 Length=1 
New Line.Feeder3.523 Bus1=3_522 Bus2=3_523 units=m Linecode=Line_MV_185 Length=1 
New Line.Feeder3.524 Bus1=3_523 Bus2=3_524 units=m Linecode=Line_MV_185 Length=1 
New Line.Feeder3.525 Bus1=3_524 Bus2=3_525 units=m Linecode=Line_MV_185 Length=1 
New Line.Feeder3.526 Bus1=3_525 Bus2=3_526 units=m Linecode=Line_MV_185 Length=1 
New Line.Feeder3.527 Bus1=3_526 Bus2=3_527 units=m Linecode=Line_MV_185 Length=1 
New Line.Feeder3.528 Bus1=3_527 Bus2=3_528 units=m Linecode=Line_MV_185 Length=1 
New Line.Feeder3.529 Bus1=3_528 Bus2=3_529 units=m Linecode=Line_MV_185 Length=1 
New Line.Feeder3.530 Bus1=3_529 Bus2=3_530 units=m Linecode=Line_MV_185 Length=1 
New Line.Feeder3.531 Bus1=3_530 Bus2=3_531 units=m Linecode=Line_MV_185 Length=1
New Line.Feeder3.532 Bus1=3_531 Bus2=3_532 units=m Linecode=Line_MV_185 Length=1 
New Line.Feeder3.533 Bus1=3_532 Bus2=3_533 units=m Linecode=Line_MV_185 Length=1 
New Line.Feeder3.534 Bus1=3_533 Bus2=3_534 units=m Linecode=Line_MV_185 Length=1 
New Line.Feeder3.535 Bus1=3_534 Bus2=3_535 units=m Linecode=Line_MV_185 Length=1 
New Line.Feeder3.536 Bus1=3_535 Bus2=3_536 units=m Linecode=Line_MV_185 Length=1 
New Line.Feeder3.537 Bus1=3_536 Bus2=3_537 units=m Linecode=Line_MV_185 Length=1 
New Line.Feeder3.538 Bus1=3_537 Bus2=3_538 units=m Linecode=Line_MV_185 Length=1 
New Line.Feeder3.539 Bus1=3_538 Bus2=3_539 units=m Linecode=Line_MV_185 Length=1 
New Line.Feeder3.540 Bus1=3_539 Bus2=3_540 units=m Linecode=Line_MV_185 Length=1 
New Line.Feeder3.541 Bus1=3_540 Bus2=3_541 units=m Linecode=Line_MV_185 Length=1 
New Line.Feeder3.542 Bus1=3_541 Bus2=3_542 units=m Linecode=Line_MV_185 Length=1
New Line.Feeder3.543 Bus1=3_542 Bus2=3_543 units=m Linecode=Line_MV_185 Length=1 
New Line.Feeder3.544 Bus1=3_543 Bus2=3_544 units=m Linecode=Line_MV_185 Length=1 
New Line.Feeder3.545 Bus1=3_544 Bus2=3_545 units=m Linecode=Line_MV_185 Length=1 
New Line.Feeder3.546 Bus1=3_545 Bus2=3_546 units=m Linecode=Line_MV_185 Length=1 
New Line.Feeder3.547 Bus1=3_546 Bus2=3_547 units=m Linecode=Line_MV_185 Length=1 
New Line.Feeder3.548 Bus1=3_547 Bus2=3_548 units=m Linecode=Line_MV_185 Length=1 
New Line.Feeder3.549 Bus1=3_548 Bus2=3_549 units=m Linecode=Line_MV_185 Length=1 
New Line.Feeder3.550 Bus1=3_549 Bus2=3_550 units=m Linecode=Line_MV_185 Length=1
New Line.Feeder3.551 Bus1=3_550 Bus2=3_551 units=m Linecode=Line_MV_185 Length=1
New Line.Feeder3.552 Bus1=3_551 Bus2=3_552 units=m Linecode=Line_MV_185 Length=1 
New Line.Feeder3.553 Bus1=3_552 Bus2=3_553 units=m Linecode=Line_MV_185 Length=1 
New Line.Feeder3.554 Bus1=3_553 Bus2=3_554 units=m Linecode=Line_MV_185 Length=1 
New Line.Feeder3.555 Bus1=3_554 Bus2=3_555 units=m Linecode=Line_MV_185 Length=1 
New Line.Feeder3.556 Bus1=3_555 Bus2=3_556 units=m Linecode=Line_MV_185 Length=1 
New Line.Feeder3.557 Bus1=3_556 Bus2=3_557 units=m Linecode=Line_MV_185 Length=1 
New Line.Feeder3.558 Bus1=3_557 Bus2=3_558 units=m Linecode=Line_MV_185 Length=1 
New Line.Feeder3.559 Bus1=3_558 Bus2=3_559 units=m Linecode=Line_MV_185 Length=1 
New Line.Feeder3.560 Bus1=3_559 Bus2=3_560 units=m Linecode=Line_MV_185 Length=1
New Line.Feeder3.561 Bus1=3_560 Bus2=3_561 units=m Linecode=Line_MV_185 Length=1 
New Line.Feeder3.562 Bus1=3_561 Bus2=3_562 units=m Linecode=Line_MV_185 Length=1 
New Line.Feeder3.563 Bus1=3_562 Bus2=3_563 units=m Linecode=Line_MV_185 Length=1 
New Line.Feeder3.564 Bus1=3_563 Bus2=3_564 units=m Linecode=Line_MV_185 Length=1 
New Line.Feeder3.565 Bus1=3_564 Bus2=3_565 units=m Linecode=Line_MV_185 Length=1 
New Line.Feeder3.566 Bus1=3_565 Bus2=3_566 units=m Linecode=Line_MV_185 Length=1 
New Line.Feeder3.567 Bus1=3_566 Bus2=3_567 units=m Linecode=Line_MV_185 Length=1 
New Line.Feeder3.568 Bus1=3_567 Bus2=3_568 units=m Linecode=Line_MV_185 Length=1 
New Line.Feeder3.569 Bus1=3_568 Bus2=3_569 units=m Linecode=Line_MV_185 Length=1  
New Line.Feeder3.570 Bus1=3_569 Bus2=3_570 units=m Linecode=Line_MV_185 Length=1
New Line.Feeder3.571 Bus1=3_570 Bus2=3_571 units=m Linecode=Line_MV_185 Length=1 
New Line.Feeder3.572 Bus1=3_571 Bus2=3_572 units=m Linecode=Line_MV_185 Length=1 
New Line.Feeder3.573 Bus1=3_572 Bus2=3_573 units=m Linecode=Line_MV_185 Length=1 
New Line.Feeder3.574 Bus1=3_573 Bus2=3_574 units=m Linecode=Line_MV_185 Length=1 
New Line.Feeder3.575 Bus1=3_574 Bus2=3_575 units=m Linecode=Line_MV_185 Length=1 
New Line.Feeder3.576 Bus1=3_575 Bus2=3_576 units=m Linecode=Line_MV_185 Length=1 
New Line.Feeder3.577 Bus1=3_576 Bus2=3_577 units=m Linecode=Line_MV_185 Length=1 
New Line.Feeder3.578 Bus1=3_577 Bus2=3_578 units=m Linecode=Line_MV_185 Length=1 
New Line.Feeder3.579 Bus1=3_578 Bus2=3_579 units=m Linecode=Line_MV_185 Length=1 
New Line.Feeder3.580 Bus1=3_579 Bus2=3_580 units=m Linecode=Line_MV_185 Length=1
New Line.Feeder3.581 Bus1=3_580 Bus2=3_581 units=m Linecode=Line_MV_185 Length=1
New Line.Feeder3.582 Bus1=3_581 Bus2=3_582 units=m Linecode=Line_MV_185 Length=1 
New Line.Feeder3.583 Bus1=3_582 Bus2=3_583 units=m Linecode=Line_MV_185 Length=1 
New Line.Feeder3.584 Bus1=3_583 Bus2=3_584 units=m Linecode=Line_MV_185 Length=1 
New Line.Feeder3.585 Bus1=3_584 Bus2=3_585 units=m Linecode=Line_MV_185 Length=1 
New Line.Feeder3.586 Bus1=3_585 Bus2=3_586 units=m Linecode=Line_MV_185 Length=1 
New Line.Feeder3.587 Bus1=3_586 Bus2=3_587 units=m Linecode=Line_MV_185 Length=1
New Line.Feeder3.588 Bus1=3_587 Bus2=3_588 units=m Linecode=Line_MV_185 Length=1 
New Line.Feeder3.589 Bus1=3_588 Bus2=3_589 units=m Linecode=Line_MV_185 Length=1  
New Line.Feeder3.590 Bus1=3_589 Bus2=3_590 units=m Linecode=Line_MV_185 Length=1
New Line.Feeder3.591 Bus1=3_590 Bus2=3_591 units=m Linecode=Line_MV_185 Length=1 
New Line.Feeder3.592 Bus1=3_591 Bus2=3_592 units=m Linecode=Line_MV_185 Length=1 
New Line.Feeder3.593 Bus1=3_592 Bus2=3_593 units=m Linecode=Line_MV_185 Length=1 
New Line.Feeder3.594 Bus1=3_593 Bus2=3_594 units=m Linecode=Line_MV_185 Length=1 
New Line.Feeder3.595 Bus1=3_594 Bus2=3_595 units=m Linecode=Line_MV_185 Length=1 
New Line.Feeder3.596 Bus1=3_595 Bus2=3_596 units=m Linecode=Line_MV_185 Length=1 
New Line.Feeder3.597 Bus1=3_596 Bus2=3_597 units=m Linecode=Line_MV_185 Length=1 
New Line.Feeder3.598 Bus1=3_597 Bus2=3_598 units=m Linecode=Line_MV_185 Length=1 
New Line.Feeder3.599 Bus1=3_598 Bus2=3_599 units=m Linecode=Line_MV_185 Length=1 
New Line.Feeder3.600 Bus1=3_599 Bus2=3_600 units=m Linecode=Line_MV_185 Length=1
New Line.Feeder3.601 Bus1=3_600 Bus2=3_601 units=m Linecode=Line_MV_185 Length=1
New Line.Feeder3.602 Bus1=3_601 Bus2=3_602 units=m Linecode=Line_MV_185 Length=1 
New Line.Feeder3.603 Bus1=3_602 Bus2=3_603 units=m Linecode=Line_MV_185 Length=1 
New Line.Feeder3.604 Bus1=3_603 Bus2=3_604 units=m Linecode=Line_MV_185 Length=1 
New Line.Feeder3.605 Bus1=3_604 Bus2=3_605 units=m Linecode=Line_MV_185 Length=1 
New Line.Feeder3.606 Bus1=3_605 Bus2=3_606 units=m Linecode=Line_MV_185 Length=1 
New Line.Feeder3.607 Bus1=3_606 Bus2=3_607 units=m Linecode=Line_MV_185 Length=1 
New Line.Feeder3.608 Bus1=3_607 Bus2=3_608 units=m Linecode=Line_MV_185 Length=1 
New Line.Feeder3.609 Bus1=3_608 Bus2=3_609 units=m Linecode=Line_MV_185 Length=1 
New Line.Feeder3_end Bus1=3_609 Bus2=3_610 units=m Linecode=Line_MV_185 Length=1


New Line.Lateral3_start_3 Bus1=3_609 Bus2=3_611 units=m Linecode=Line_MV_95 Length=1 
New Line.Lateral3.612 Bus1=3_611 Bus2=3_612 units=m Linecode=Line_MV_95 Length=1 
New Line.Lateral3.613 Bus1=3_612 Bus2=3_613 units=m Linecode=Line_MV_95 Length=1 
New Line.Lateral3.614 Bus1=3_613 Bus2=3_614 units=m Linecode=Line_MV_95 Length=1 
New Line.Lateral3.615 Bus1=3_614 Bus2=3_615 units=m Linecode=Line_MV_95 Length=1 
New Line.Lateral3.616 Bus1=3_615 Bus2=3_616 units=m Linecode=Line_MV_95 Length=1 
New Line.Lateral3.617 Bus1=3_616 Bus2=3_617 units=m Linecode=Line_MV_95 Length=1
New Line.Lateral3.618 Bus1=3_617 Bus2=3_618 units=m Linecode=Line_MV_95 Length=1 
New Line.Lateral3.619 Bus1=3_618 Bus2=3_619 units=m Linecode=Line_MV_95 Length=1 
New Line.Lateral3.620 Bus1=3_619 Bus2=3_620 units=m Linecode=Line_MV_95 Length=1 
New Line.Lateral3.621 Bus1=3_620 Bus2=3_621 units=m Linecode=Line_MV_95 Length=1 
New Line.Lateral3.622 Bus1=3_621 Bus2=3_622 units=m Linecode=Line_MV_95 Length=1 
New Line.Lateral3.623 Bus1=3_622 Bus2=3_623 units=m Linecode=Line_MV_95 Length=1 
New Line.Lateral3.624 Bus1=3_623 Bus2=3_624 units=m Linecode=Line_MV_95 Length=1
New Line.Lateral3.625 Bus1=3_624 Bus2=3_625 units=m Linecode=Line_MV_95 Length=1 
New Line.Lateral3.626 Bus1=3_625 Bus2=3_626 units=m Linecode=Line_MV_95 Length=1 
New Line.Lateral3.627 Bus1=3_626 Bus2=3_627 units=m Linecode=Line_MV_95 Length=1 
New Line.Lateral3.628 Bus1=3_627 Bus2=3_628 units=m Linecode=Line_MV_95 Length=1 
New Line.Lateral3.629 Bus1=3_628 Bus2=3_639 units=m Linecode=Line_MV_95 Length=1 
New Line.Lateral3.630 Bus1=3_629 Bus2=3_630 units=m Linecode=Line_MV_95 Length=1 
New Line.Lateral3.631 Bus1=3_630 Bus2=3_631 units=m Linecode=Line_MV_95 Length=1 
New Line.Lateral3.632 Bus1=3_631 Bus2=3_632 units=m Linecode=Line_MV_95 Length=1 
New Line.Lateral3.633 Bus1=3_632 Bus2=3_633 units=m Linecode=Line_MV_95 Length=1 
New Line.Lateral3.634 Bus1=3_633 Bus2=3_634 units=m Linecode=Line_MV_95 Length=1 
New Line.Lateral3.635 Bus1=3_634 Bus2=3_635 units=m Linecode=Line_MV_95 Length=1 
New Line.Lateral3.636 Bus1=3_635 Bus2=3_636 units=m Linecode=Line_MV_95 Length=1 
New Line.Lateral3.637 Bus1=3_636 Bus2=3_637 units=m Linecode=Line_MV_95 Length=1 
New Line.Lateral3.638 Bus1=3_637 Bus2=3_638 units=m Linecode=Line_MV_95 Length=1 
New Line.Lateral3.639 Bus1=3_638 Bus2=3_639 units=m Linecode=Line_MV_95 Length=1 
New Line.Lateral3.640 Bus1=3_639 Bus2=3_640 units=m Linecode=Line_MV_95 Length=1 
New Line.Lateral3.641 Bus1=3_640 Bus2=3_641 units=m Linecode=Line_MV_95 Length=1 
New Line.Lateral3.642 Bus1=3_641 Bus2=3_642 units=m Linecode=Line_MV_95 Length=1 
New Line.Lateral3.643 Bus1=3_642 Bus2=3_643 units=m Linecode=Line_MV_95 Length=1 
New Line.Lateral3.644 Bus1=3_643 Bus2=3_644 units=m Linecode=Line_MV_95 Length=1 
New Line.Lateral3.645 Bus1=3_644 Bus2=3_645 units=m Linecode=Line_MV_95 Length=1 
New Line.Lateral3.646 Bus1=3_645 Bus2=3_646 units=m Linecode=Line_MV_95 Length=1 
New Line.Lateral3.647 Bus1=3_646 Bus2=3_647 units=m Linecode=Line_MV_95 Length=1 
New Line.Lateral3.648 Bus1=3_647 Bus2=3_648 units=m Linecode=Line_MV_95 Length=1 
New Line.Lateral3.649 Bus1=3_648 Bus2=3_649 units=m Linecode=Line_MV_95 Length=1 
New Line.Lateral3.650 Bus1=3_649 Bus2=3_650 units=m Linecode=Line_MV_95 Length=1 
New Line.Lateral3.651 Bus1=3_650 Bus2=3_651 units=m Linecode=Line_MV_95 Length=1 
New Line.Lateral3.652 Bus1=3_651 Bus2=3_652 units=m Linecode=Line_MV_95 Length=1 
New Line.Lateral3.653 Bus1=3_652 Bus2=3_653 units=m Linecode=Line_MV_95 Length=1 
New Line.Lateral3.654 Bus1=3_653 Bus2=3_654 units=m Linecode=Line_MV_95 Length=1
New Line.Lateral3.655 Bus1=3_654 Bus2=3_655 units=m Linecode=Line_MV_95 Length=1 
New Line.Lateral3.656 Bus1=3_655 Bus2=3_656 units=m Linecode=Line_MV_95 Length=1 
New Line.Lateral3.657 Bus1=3_656 Bus2=3_657 units=m Linecode=Line_MV_95 Length=1
New Line.Lateral3.658 Bus1=3_657 Bus2=3_658 units=m Linecode=Line_MV_95 Length=1 
New Line.Lateral3.659 Bus1=3_658 Bus2=3_659 units=m Linecode=Line_MV_95 Length=1 
New Line.Lateral3.660 Bus1=3_659 Bus2=3_660 units=m Linecode=Line_MV_95 Length=1 
New Line.Lateral3.661 Bus1=3_660 Bus2=3_661 units=m Linecode=Line_MV_95 Length=1 
New Line.Lateral3.662 Bus1=3_661 Bus2=3_662 units=m Linecode=Line_MV_95 Length=1 
New Line.Lateral3.663 Bus1=3_662 Bus2=3_663 units=m Linecode=Line_MV_95 Length=1 
New Line.Lateral3.664 Bus1=3_663 Bus2=3_664 units=m Linecode=Line_MV_95 Length=1 
New Line.Lateral3.665 Bus1=3_664 Bus2=3_665 units=m Linecode=Line_MV_95 Length=1 
New Line.Lateral3.666 Bus1=3_665 Bus2=3_666 units=m Linecode=Line_MV_95 Length=1 
New Line.Lateral3.667 Bus1=3_666 Bus2=3_667 units=m Linecode=Line_MV_95 Length=1 
New Line.Lateral3.668 Bus1=3_667 Bus2=3_668 units=m Linecode=Line_MV_95 Length=1
New Line.Lateral3.669 Bus1=3_668 Bus2=3_669 units=m Linecode=Line_MV_95 Length=1 
New Line.Lateral3.670 Bus1=3_669 Bus2=3_670 units=m Linecode=Line_MV_95 Length=1 
New Line.Lateral3.671 Bus1=3_670 Bus2=3_671 units=m Linecode=Line_MV_95 Length=1 
New Line.Lateral3.672 Bus1=3_671 Bus2=3_672 units=m Linecode=Line_MV_95 Length=1 
New Line.Lateral3.673 Bus1=3_672 Bus2=3_673 units=m Linecode=Line_MV_95 Length=1 
New Line.Lateral3.674 Bus1=3_673 Bus2=3_674 units=m Linecode=Line_MV_95 Length=1 
New Line.Lateral3.675 Bus1=3_674 Bus2=3_675 units=m Linecode=Line_MV_95 Length=1 
New Line.Lateral3.676 Bus1=3_675 Bus2=3_676 units=m Linecode=Line_MV_95 Length=1 
New Line.Lateral3.677 Bus1=3_676 Bus2=3_677 units=m Linecode=Line_MV_95 Length=1
New Line.Lateral3.678 Bus1=3_677 Bus2=3_678 units=m Linecode=Line_MV_95 Length=1 
New Line.Lateral3.679 Bus1=3_678 Bus2=3_679 units=m Linecode=Line_MV_95 Length=1 
New Line.Lateral3.680 Bus1=3_679 Bus2=3_680 units=m Linecode=Line_MV_95 Length=1 
New Line.Lateral3.681 Bus1=3_680 Bus2=3_681 units=m Linecode=Line_MV_95 Length=1 
New Line.Lateral3.682 Bus1=3_681 Bus2=3_682 units=m Linecode=Line_MV_95 Length=1 
New Line.Lateral3.683 Bus1=3_682 Bus2=3_683 units=m Linecode=Line_MV_95 Length=1 
New Line.Lateral3.684 Bus1=3_683 Bus2=3_684 units=m Linecode=Line_MV_95 Length=1 
New Line.Lateral3.685 Bus1=3_684 Bus2=3_685 units=m Linecode=Line_MV_95 Length=1 
New Line.Lateral3.686 Bus1=3_685 Bus2=3_686 units=m Linecode=Line_MV_95 Length=1 
New Line.Lateral3.687 Bus1=3_686 Bus2=3_687 units=m Linecode=Line_MV_95 Length=1 
New Line.Lateral3.688 Bus1=3_687 Bus2=3_688 units=m Linecode=Line_MV_95 Length=1 
New Line.Lateral3.689 Bus1=3_688 Bus2=3_689 units=m Linecode=Line_MV_95 Length=1 
New Line.Lateral3.690 Bus1=3_689 Bus2=3_690 units=m Linecode=Line_MV_95 Length=1 
New Line.Lateral3.691 Bus1=3_690 Bus2=3_691 units=m Linecode=Line_MV_95 Length=1 
New Line.Lateral3.692 Bus1=3_691 Bus2=3_692 units=m Linecode=Line_MV_95 Length=1 
New Line.Lateral3.693 Bus1=3_692 Bus2=3_693 units=m Linecode=Line_MV_95 Length=1 
New Line.Lateral3.694 Bus1=3_693 Bus2=3_694 units=m Linecode=Line_MV_95 Length=1 
New Line.Lateral3.695 Bus1=3_694 Bus2=3_695 units=m Linecode=Line_MV_95 Length=1 
New Line.Lateral3.696 Bus1=3_695 Bus2=3_696 units=m Linecode=Line_MV_95 Length=1 
New Line.Lateral3.697 Bus1=3_696 Bus2=3_697 units=m Linecode=Line_MV_95 Length=1
New Line.Lateral3.698 Bus1=3_697 Bus2=3_698 units=m Linecode=Line_MV_95 Length=1 
New Line.Lateral3.699 Bus1=3_698 Bus2=3_699 units=m Linecode=Line_MV_95 Length=1 
New Line.Lateral3.700 Bus1=3_699 Bus2=3_700 units=m Linecode=Line_MV_95 Length=1 
New Line.Lateral3.701 Bus1=3_700 Bus2=3_701 units=m Linecode=Line_MV_95 Length=1 
New Line.Lateral3.702 Bus1=3_701 Bus2=3_702 units=m Linecode=Line_MV_95 Length=1 
New Line.Lateral3.703 Bus1=3_702 Bus2=3_703 units=m Linecode=Line_MV_95 Length=1 
New Line.Lateral3.704 Bus1=3_703 Bus2=3_704 units=m Linecode=Line_MV_95 Length=1 
New Line.Lateral3.705 Bus1=3_704 Bus2=3_705 units=m Linecode=Line_MV_95 Length=1 
New Line.Lateral3.706 Bus1=3_705 Bus2=3_706 units=m Linecode=Line_MV_95 Length=1 
New Line.Lateral3.707 Bus1=3_706 Bus2=3_707 units=m Linecode=Line_MV_95 Length=1 
New Line.Lateral3.708 Bus1=3_707 Bus2=3_708 units=m Linecode=Line_MV_95 Length=1 
New Line.Lateral3.709 Bus1=3_708 Bus2=3_709 units=m Linecode=Line_MV_95 Length=1 
New Line.Lateral3.710 Bus1=3_709 Bus2=3_710 units=m Linecode=Line_MV_95 Length=1 
New Line.Lateral3.711 Bus1=3_709 Bus2=3_711 units=m Linecode=Line_MV_95 Length=1 
New Line.Lateral3.712 Bus1=3_711 Bus2=3_712 units=m Linecode=Line_MV_95 Length=1 
New Line.Lateral3.713 Bus1=3_712 Bus2=3_713 units=m Linecode=Line_MV_95 Length=1 
New Line.Lateral3.714 Bus1=3_713 Bus2=3_714 units=m Linecode=Line_MV_95 Length=1 
New Line.Lateral3.715 Bus1=3_714 Bus2=3_715 units=m Linecode=Line_MV_95 Length=1 
New Line.Lateral3.716 Bus1=3_715 Bus2=3_716 units=m Linecode=Line_MV_95 Length=1 
New Line.Lateral3.717 Bus1=3_716 Bus2=3_717 units=m Linecode=Line_MV_95 Length=1
New Line.Lateral3.718 Bus1=3_717 Bus2=3_718 units=m Linecode=Line_MV_95 Length=1 
New Line.Lateral3.719 Bus1=3_718 Bus2=3_719 units=m Linecode=Line_MV_95 Length=1 
New Line.Lateral3.720 Bus1=3_719 Bus2=3_720 units=m Linecode=Line_MV_95 Length=1 
New Line.Lateral3.721 Bus1=3_720 Bus2=3_721 units=m Linecode=Line_MV_95 Length=1 
New Line.Lateral3.722 Bus1=3_721 Bus2=3_722 units=m Linecode=Line_MV_95 Length=1 
New Line.Lateral3.723 Bus1=3_722 Bus2=3_723 units=m Linecode=Line_MV_95 Length=1 
New Line.Lateral3.724 Bus1=3_723 Bus2=3_724 units=m Linecode=Line_MV_95 Length=1
New Line.Lateral3.725 Bus1=3_724 Bus2=3_725 units=m Linecode=Line_MV_95 Length=1 
New Line.Lateral3.726 Bus1=3_725 Bus2=3_726 units=m Linecode=Line_MV_95 Length=1 
New Line.Lateral3.727 Bus1=3_726 Bus2=3_727 units=m Linecode=Line_MV_95 Length=1 
New Line.Lateral3.728 Bus1=3_727 Bus2=3_728 units=m Linecode=Line_MV_95 Length=1 
New Line.Lateral3.729 Bus1=3_728 Bus2=3_739 units=m Linecode=Line_MV_95 Length=1 
New Line.Lateral3.730 Bus1=3_729 Bus2=3_730 units=m Linecode=Line_MV_95 Length=1 
New Line.Lateral3.731 Bus1=3_730 Bus2=3_731 units=m Linecode=Line_MV_95 Length=1 
New Line.Lateral3.732 Bus1=3_731 Bus2=3_732 units=m Linecode=Line_MV_95 Length=1 
New Line.Lateral3.733 Bus1=3_732 Bus2=3_733 units=m Linecode=Line_MV_95 Length=1 
...